@<TRIPOS>MOLECULE
*****
 15 14 0 0 0
SMALL
GASTEIGER

@<TRIPOS>ATOM
      1 N          -3.6371    2.8977   -0.1754 N3      1  UNL1       -0.2452
      2 CA         -2.3623    2.1847   -0.2532 C3      1  UNL1        0.0894
      3 C          -2.3506    1.0407    0.7197 C2      1  UNL1        0.2178
      4 O          -3.1496    0.1238    0.6009 O2      1  UNL1       -0.2872
      5 H          -4.4377    2.2259   -0.2158 1       1  UNL1        0.1414
      6 HA         -2.2286    1.7722   -1.2787 1       1  UNL1        0.0557
      7 C          -1.2414    3.1969    0.0269 C3      1  UNL1       -0.0066
      8 C           0.1784    2.6216    0.0496 C3      1  UNL1        0.0760
      9 N           1.1060    3.7172    0.1439 N2      1  UNL1       -0.1101
     10 N           2.3191    3.5376    0.1312 N2      1  UNL1       -0.1671
     11 N           3.5157    3.3613    0.1175 N2      1  UNL1        0.0678
     12 H          -1.4255    3.7033    1.0004 1       1  UNL1        0.0304
     13 H          -1.2903    3.9627   -0.7798 1       1  UNL1        0.0304
     14 H           0.3747    2.0450   -0.8832 1       1  UNL1        0.0537
     15 H           0.3049    1.9438    0.9255 1       1  UNL1        0.0537
@<TRIPOS>BOND
     1     6     2    1
     2    14     8    1
     3    13     7    1
     4     2     1    1
     5     2     7    1
     6     2     3    1
     7     5     1    1
     8     7     8    1
     9     7    12    1
    10     8     9    1
    11     8    15    1
    12    11    10    2
    13    10     9    2
    14     4     3    2
